Conformer_0_Energy_267.24
     RDKit          3D

  9  9  0  0  0  0  0  0  0  0999 V2000
    0.8372   -0.2572    0.0071 C   0  0  0  0  0  0  0  0  0  0  0  0
   -0.1973    0.8507    0.0665 C   0  0  0  0  0  0  0  0  0  0  0  0
   -0.6399   -0.5935   -0.0736 C   0  0  0  0  0  0  0  0  0  0  0  0
    1.3096   -0.4966    0.9833 H   0  0  0  0  0  0  0  0  0  0  0  0
    1.3776   -0.3290   -0.9606 H   0  0  0  0  0  0  0  0  0  0  0  0
   -0.2827    1.4491   -0.8652 H   0  0  0  0  0  0  0  0  0  0  0  0
   -0.3506    1.2815    1.0786 H   0  0  0  0  0  0  0  0  0  0  0  0
   -1.0609   -1.0364    0.8539 H   0  0  0  0  0  0  0  0  0  0  0  0
   -0.9929   -0.8687   -1.0900 H   0  0  0  0  0  0  0  0  0  0  0  0
  1  2  1  0
  2  3  1  0
  3  1  1  0
  1  4  1  0
  1  5  1  0
  2  6  1  0
  2  7  1  0
  3  8  1  0
  3  9  1  0
M  END
$$$$
Conformer_6_Energy_267.24
     RDKit          3D

  9  9  0  0  0  0  0  0  0  0999 V2000
    0.8370   -0.2578    0.0058 C   0  0  0  0  0  0  0  0  0  0  0  0
   -0.1956    0.8510   -0.0673 C   0  0  0  0  0  0  0  0  0  0  0  0
   -0.6414   -0.5932    0.0616 C   0  0  0  0  0  0  0  0  0  0  0  0
    1.3616   -0.3326    0.9818 H   0  0  0  0  0  0  0  0  0  0  0  0
    1.3250   -0.4949   -0.9633 H   0  0  0  0  0  0  0  0  0  0  0  0
   -0.3323    1.2847   -1.0806 H   0  0  0  0  0  0  0  0  0  0  0  0
   -0.2957    1.4470    0.8645 H   0  0  0  0  0  0  0  0  0  0  0  0
   -1.0476   -1.0332   -0.8738 H   0  0  0  0  0  0  0  0  0  0  0  0
   -1.0110   -0.8710    1.0714 H   0  0  0  0  0  0  0  0  0  0  0  0
  1  2  1  0
  2  3  1  0
  3  1  1  0
  1  4  1  0
  1  5  1  0
  2  6  1  0
  2  7  1  0
  3  8  1  0
  3  9  1  0
M  END
$$$$
Conformer_7_Energy_267.24
     RDKit          3D

  9  9  0  0  0  0  0  0  0  0999 V2000
    0.8357   -0.2620    0.0020 C   0  0  0  0  0  0  0  0  0  0  0  0
   -0.1916    0.8523   -0.0624 C   0  0  0  0  0  0  0  0  0  0  0  0
   -0.6441   -0.5903    0.0604 C   0  0  0  0  0  0  0  0  0  0  0  0
    1.3198   -0.4965   -0.9697 H   0  0  0  0  0  0  0  0  0  0  0  0
    1.3628   -0.3444    0.9762 H   0  0  0  0  0  0  0  0  0  0  0  0
   -0.3289    1.2918   -1.0731 H   0  0  0  0  0  0  0  0  0  0  0  0
   -0.2859    1.4440    0.8727 H   0  0  0  0  0  0  0  0  0  0  0  0
   -1.0553   -1.0235   -0.8760 H   0  0  0  0  0  0  0  0  0  0  0  0
   -1.0123   -0.8714    1.0698 H   0  0  0  0  0  0  0  0  0  0  0  0
  1  2  1  0
  2  3  1  0
  3  1  1  0
  1  4  1  0
  1  5  1  0
  2  6  1  0
  2  7  1  0
  3  8  1  0
  3  9  1  0
M  END
$$$$
Conformer_8_Energy_267.24
     RDKit          3D

  9  9  0  0  0  0  0  0  0  0999 V2000
    0.8265   -0.2893    0.0144 C   0  0  0  0  0  0  0  0  0  0  0  0
   -0.6632   -0.5709   -0.0361 C   0  0  0  0  0  0  0  0  0  0  0  0
   -0.1633    0.8602    0.0217 C   0  0  0  0  0  0  0  0  0  0  0  0
    1.2991   -0.4941    0.9984 H   0  0  0  0  0  0  0  0  0  0  0  0
    1.3540   -0.4345   -0.9521 H   0  0  0  0  0  0  0  0  0  0  0  0
   -1.0370   -0.8864   -1.0332 H   0  0  0  0  0  0  0  0  0  0  0  0
   -1.0919   -0.9460    0.9173 H   0  0  0  0  0  0  0  0  0  0  0  0
   -0.2895    1.3507    1.0101 H   0  0  0  0  0  0  0  0  0  0  0  0
   -0.2346    1.4103   -0.9405 H   0  0  0  0  0  0  0  0  0  0  0  0
  1  2  1  0
  2  3  1  0
  3  1  1  0
  1  4  1  0
  1  5  1  0
  2  6  1  0
  2  7  1  0
  3  8  1  0
  3  9  1  0
M  END
$$$$
Conformer_2_Energy_267.24
     RDKit          3D

  9  9  0  0  0  0  0  0  0  0999 V2000
   -0.7760   -0.3842   -0.1316 C   0  0  0  0  0  0  0  0  0  0  0  0
    0.7329   -0.4794   -0.0077 C   0  0  0  0  0  0  0  0  0  0  0  0
    0.0430    0.8636    0.1393 C   0  0  0  0  0  0  0  0  0  0  0  0
   -1.3338   -0.7670    0.7492 H   0  0  0  0  0  0  0  0  0  0  0  0
   -1.1570   -0.4662   -1.1716 H   0  0  0  0  0  0  0  0  0  0  0  0
    1.0879   -0.9199    0.9481 H   0  0  0  0  0  0  0  0  0  0  0  0
    1.2647   -0.6189   -0.9727 H   0  0  0  0  0  0  0  0  0  0  0  0
    0.1574    1.5365   -0.7369 H   0  0  0  0  0  0  0  0  0  0  0  0
   -0.0193    1.2355    1.1839 H   0  0  0  0  0  0  0  0  0  0  0  0
  1  2  1  0
  2  3  1  0
  3  1  1  0
  1  4  1  0
  1  5  1  0
  2  6  1  0
  2  7  1  0
  3  8  1  0
  3  9  1  0
M  END
$$$$
Conformer_4_Energy_267.24
     RDKit          3D

  9  9  0  0  0  0  0  0  0  0999 V2000
   -0.4785   -0.7333    0.0181 C   0  0  0  0  0  0  0  0  0  0  0  0
   -0.3960    0.7811   -0.0134 C   0  0  0  0  0  0  0  0  0  0  0  0
    0.8745   -0.0477   -0.0048 C   0  0  0  0  0  0  0  0  0  0  0  0
   -0.7744   -1.1969   -0.9468 H   0  0  0  0  0  0  0  0  0  0  0  0
   -0.7615   -1.1569    1.0050 H   0  0  0  0  0  0  0  0  0  0  0  0
   -0.6292    1.2735    0.9544 H   0  0  0  0  0  0  0  0  0  0  0  0
   -0.6421    1.2335   -0.9973 H   0  0  0  0  0  0  0  0  0  0  0  0
    1.3971   -0.0966   -0.9836 H   0  0  0  0  0  0  0  0  0  0  0  0
    1.4100   -0.0567    0.9682 H   0  0  0  0  0  0  0  0  0  0  0  0
  1  2  1  0
  2  3  1  0
  3  1  1  0
  1  4  1  0
  1  5  1  0
  2  6  1  0
  2  7  1  0
  3  8  1  0
  3  9  1  0
M  END
$$$$
Conformer_5_Energy_267.24
     RDKit          3D

  9  9  0  0  0  0  0  0  0  0999 V2000
   -0.2505    0.8271    0.1424 C   0  0  0  0  0  0  0  0  0  0  0  0
   -0.6016   -0.6280   -0.1040 C   0  0  0  0  0  0  0  0  0  0  0  0
    0.8520   -0.1991   -0.0384 C   0  0  0  0  0  0  0  0  0  0  0  0
   -0.3970    1.1632    1.1908 H   0  0  0  0  0  0  0  0  0  0  0  0
   -0.4070    1.4915   -0.7337 H   0  0  0  0  0  0  0  0  0  0  0  0
   -0.9705   -0.8437   -1.1291 H   0  0  0  0  0  0  0  0  0  0  0  0
   -0.9604   -1.1721    0.7953 H   0  0  0  0  0  0  0  0  0  0  0  0
    1.3725   -0.4836    0.9005 H   0  0  0  0  0  0  0  0  0  0  0  0
    1.3624   -0.1554   -1.0239 H   0  0  0  0  0  0  0  0  0  0  0  0
  1  2  1  0
  2  3  1  0
  3  1  1  0
  1  4  1  0
  1  5  1  0
  2  6  1  0
  2  7  1  0
  3  8  1  0
  3  9  1  0
M  END
$$$$
Conformer_3_Energy_267.24
     RDKit          3D

  9  9  0  0  0  0  0  0  0  0999 V2000
   -0.6924   -0.5305   -0.0794 C   0  0  0  0  0  0  0  0  0  0  0  0
    0.8105   -0.3241   -0.0726 C   0  0  0  0  0  0  0  0  0  0  0  0
   -0.1180    0.8543    0.1520 C   0  0  0  0  0  0  0  0  0  0  0  0
   -1.0928   -1.0194    0.8339 H   0  0  0  0  0  0  0  0  0  0  0  0
   -1.1302   -0.6828   -1.0887 H   0  0  0  0  0  0  0  0  0  0  0  0
    1.3196   -0.6883    0.8448 H   0  0  0  0  0  0  0  0  0  0  0  0
    1.2820   -0.3513   -1.0778 H   0  0  0  0  0  0  0  0  0  0  0  0
   -0.1705    1.2028    1.2052 H   0  0  0  0  0  0  0  0  0  0  0  0
   -0.2082    1.5395   -0.7174 H   0  0  0  0  0  0  0  0  0  0  0  0
  1  2  1  0
  2  3  1  0
  3  1  1  0
  1  4  1  0
  1  5  1  0
  2  6  1  0
  2  7  1  0
  3  8  1  0
  3  9  1  0
M  END
$$$$
Conformer_1_Energy_267.24
     RDKit          3D

  9  9  0  0  0  0  0  0  0  0999 V2000
    0.7373   -0.4588   -0.1132 C   0  0  0  0  0  0  0  0  0  0  0  0
   -0.7580   -0.4165    0.1386 C   0  0  0  0  0  0  0  0  0  0  0  0
    0.0204    0.8752   -0.0253 C   0  0  0  0  0  0  0  0  0  0  0  0
    1.0209   -0.7601   -1.1439 H   0  0  0  0  0  0  0  0  0  0  0  0
    1.3462   -0.7123    0.7804 H   0  0  0  0  0  0  0  0  0  0  0  0
   -1.0538   -0.6443    1.1845 H   0  0  0  0  0  0  0  0  0  0  0  0
   -1.3793   -0.6923   -0.7397 H   0  0  0  0  0  0  0  0  0  0  0  0
    0.1956    1.4286    0.9215 H   0  0  0  0  0  0  0  0  0  0  0  0
   -0.1293    1.3806   -1.0029 H   0  0  0  0  0  0  0  0  0  0  0  0
  1  2  1  0
  2  3  1  0
  3  1  1  0
  1  4  1  0
  1  5  1  0
  2  6  1  0
  2  7  1  0
  3  8  1  0
  3  9  1  0
M  END
$$$$
Conformer_9_Energy_267.24
     RDKit          3D

  9  9  0  0  0  0  0  0  0  0999 V2000
   -0.7361   -0.4702   -0.0659 C   0  0  0  0  0  0  0  0  0  0  0  0
   -0.0359    0.8746   -0.0179 C   0  0  0  0  0  0  0  0  0  0  0  0
    0.7721   -0.4052    0.0839 C   0  0  0  0  0  0  0  0  0  0  0  0
   -1.2788   -0.7382    0.8654 H   0  0  0  0  0  0  0  0  0  0  0  0
   -1.0847   -0.7698   -1.0770 H   0  0  0  0  0  0  0  0  0  0  0  0
    0.0396    1.3879   -0.9999 H   0  0  0  0  0  0  0  0  0  0  0  0
   -0.1550    1.4198    0.9423 H   0  0  0  0  0  0  0  0  0  0  0  0
    1.3366   -0.6653   -0.8366 H   0  0  0  0  0  0  0  0  0  0  0  0
    1.1424   -0.6336    1.1057 H   0  0  0  0  0  0  0  0  0  0  0  0
  1  2  1  0
  2  3  1  0
  3  1  1  0
  1  4  1  0
  1  5  1  0
  2  6  1  0
  2  7  1  0
  3  8  1  0
  3  9  1  0
M  END
$$$$
