     9
 geometry
 C                    -0.84598094     0.22667991     0.00000000
 C                     0.61930103     0.61930103     0.00000000
 C                     0.22667991    -0.84598094     0.00000000
 H                    -1.41530174     0.37922896     0.90605715
 H                    -1.41530174     0.37922896    -0.90605715
 H                     1.03607278     1.03607278    -0.90605715
 H                     1.03607278     1.03607278     0.90605715
 H                     0.37922896    -1.41530174    -0.90605715
 H                     0.37922896    -1.41530174     0.90605715
