     9
 geometry
 C                    -0.84597485     0.22667828     0.00000000
 C                     0.61929657     0.61929657     0.00000000
 C                     0.22667828    -0.84597485     0.00000000
 H                    -1.35774003     0.36380534     0.97612611
 H                    -1.35774003     0.36380534    -0.97612611
 H                     0.99393468     0.99393468    -0.97612611
 H                     0.99393468     0.99393468     0.97612611
 H                     0.36380534    -1.35774003    -0.97612611
 H                     0.36380534    -1.35774003     0.97612611
