Conformer_0_Energy_518.33
     RDKit          3D

 10 11  0  0  0  0  0  0  0  0999 V2000
   -1.2219    0.2380    0.3224 C   0  0  0  0  0  0  0  0  0  0  0  0
   -0.2144   -0.2233   -0.7063 C   0  0  0  0  0  0  0  0  0  0  0  0
    0.2272    0.0977    0.7304 C   0  0  0  0  0  0  0  0  0  0  0  0
    1.1632    0.3366   -0.4327 C   0  0  0  0  0  0  0  0  0  0  0  0
   -1.8942   -0.5583    0.7070 H   0  0  0  0  0  0  0  0  0  0  0  0
   -1.5506    1.2896    0.1886 H   0  0  0  0  0  0  0  0  0  0  0  0
   -0.2100   -1.3283   -0.8364 H   0  0  0  0  0  0  0  0  0  0  0  0
    0.4335   -0.8606    1.2568 H   0  0  0  0  0  0  0  0  0  0  0  0
    1.2753    1.4063   -0.7063 H   0  0  0  0  0  0  0  0  0  0  0  0
    1.9918   -0.3978   -0.5234 H   0  0  0  0  0  0  0  0  0  0  0  0
  1  2  1  0
  2  3  1  0
  3  4  1  0
  3  1  1  0
  4  2  1  0
  1  5  1  0
  1  6  1  0
  2  7  1  0
  3  8  1  0
  4  9  1  0
  4 10  1  0
M  END
$$$$
Conformer_5_Energy_518.33
     RDKit          3D

 10 11  0  0  0  0  0  0  0  0999 V2000
   -1.2603    0.2556   -0.0065 C   0  0  0  0  0  0  0  0  0  0  0  0
    0.0187    0.0375    0.7700 C   0  0  0  0  0  0  0  0  0  0  0  0
   -0.0146   -0.1650   -0.7532 C   0  0  0  0  0  0  0  0  0  0  0  0
    1.2416    0.3271   -0.0707 C   0  0  0  0  0  0  0  0  0  0  0  0
   -2.0227   -0.5429    0.1166 H   0  0  0  0  0  0  0  0  0  0  0  0
   -1.5258    1.3245   -0.1427 H   0  0  0  0  0  0  0  0  0  0  0  0
    0.0597   -0.9624    1.2563 H   0  0  0  0  0  0  0  0  0  0  0  0
    0.0113   -1.2574   -0.9628 H   0  0  0  0  0  0  0  0  0  0  0  0
    1.4384    1.4092   -0.2188 H   0  0  0  0  0  0  0  0  0  0  0  0
    2.0537   -0.4264    0.0118 H   0  0  0  0  0  0  0  0  0  0  0  0
  1  2  1  0
  2  3  1  0
  3  4  1  0
  3  1  1  0
  4  2  1  0
  1  5  1  0
  1  6  1  0
  2  7  1  0
  3  8  1  0
  4  9  1  0
  4 10  1  0
M  END
$$$$
Conformer_7_Energy_518.33
     RDKit          3D

 10 11  0  0  0  0  0  0  0  0999 V2000
   -1.2477   -0.1467    0.2746 C   0  0  0  0  0  0  0  0  0  0  0  0
    0.0051    0.6982    0.3275 C   0  0  0  0  0  0  0  0  0  0  0  0
   -0.0069   -0.6341   -0.4388 C   0  0  0  0  0  0  0  0  0  0  0  0
    1.2558   -0.1465    0.2351 C   0  0  0  0  0  0  0  0  0  0  0  0
   -2.0462    0.2438   -0.3917 H   0  0  0  0  0  0  0  0  0  0  0  0
   -1.4642   -0.6880    1.2190 H   0  0  0  0  0  0  0  0  0  0  0  0
   -0.0066    1.5290   -0.4125 H   0  0  0  0  0  0  0  0  0  0  0  0
   -0.0241   -0.4120   -1.5289 H   0  0  0  0  0  0  0  0  0  0  0  0
    2.0327    0.2441   -0.4562 H   0  0  0  0  0  0  0  0  0  0  0  0
    1.5020   -0.6879    1.1721 H   0  0  0  0  0  0  0  0  0  0  0  0
  1  2  1  0
  2  3  1  0
  3  4  1  0
  3  1  1  0
  4  2  1  0
  1  5  1  0
  1  6  1  0
  2  7  1  0
  3  8  1  0
  4  9  1  0
  4 10  1  0
M  END
$$$$
Conformer_9_Energy_518.33
     RDKit          3D

 10 11  0  0  0  0  0  0  0  0999 V2000
   -1.2698   -0.1638   -0.1199 C   0  0  0  0  0  0  0  0  0  0  0  0
   -0.0244    0.6300   -0.4439 C   0  0  0  0  0  0  0  0  0  0  0  0
    0.0343   -0.5475    0.5421 C   0  0  0  0  0  0  0  0  0  0  0  0
    1.2247   -0.2141   -0.3284 C   0  0  0  0  0  0  0  0  0  0  0  0
   -1.5835   -0.8563   -0.9284 H   0  0  0  0  0  0  0  0  0  0  0  0
   -1.9947    0.3553    0.5427 H   0  0  0  0  0  0  0  0  0  0  0  0
    0.0432    1.5772    0.1360 H   0  0  0  0  0  0  0  0  0  0  0  0
    0.1286   -0.1383    1.5724 H   0  0  0  0  0  0  0  0  0  0  0  0
    2.0697    0.2733    0.2030 H   0  0  0  0  0  0  0  0  0  0  0  0
    1.3719   -0.9158   -1.1756 H   0  0  0  0  0  0  0  0  0  0  0  0
  1  2  1  0
  2  3  1  0
  3  4  1  0
  3  1  1  0
  4  2  1  0
  1  5  1  0
  1  6  1  0
  2  7  1  0
  3  8  1  0
  4  9  1  0
  4 10  1  0
M  END
$$$$
Conformer_6_Energy_518.33
     RDKit          3D

 10 11  0  0  0  0  0  0  0  0999 V2000
   -1.1676    0.4518   -0.2937 C   0  0  0  0  0  0  0  0  0  0  0  0
    0.1447    0.6172    0.4390 C   0  0  0  0  0  0  0  0  0  0  0  0
   -0.1640   -0.6786   -0.3278 C   0  0  0  0  0  0  0  0  0  0  0  0
    1.2560   -0.1717   -0.2157 C   0  0  0  0  0  0  0  0  0  0  0  0
   -1.2281    1.0272   -1.2407 H   0  0  0  0  0  0  0  0  0  0  0  0
   -2.0480    0.2749    0.3602 H   0  0  0  0  0  0  0  0  0  0  0  0
    0.0563    0.4100    1.5286 H   0  0  0  0  0  0  0  0  0  0  0  0
   -0.3934   -1.4779    0.4114 H   0  0  0  0  0  0  0  0  0  0  0  0
    1.6433    0.2881   -1.1486 H   0  0  0  0  0  0  0  0  0  0  0  0
    1.9008   -0.7410    0.4873 H   0  0  0  0  0  0  0  0  0  0  0  0
  1  2  1  0
  2  3  1  0
  3  4  1  0
  3  1  1  0
  4  2  1  0
  1  5  1  0
  1  6  1  0
  2  7  1  0
  3  8  1  0
  4  9  1  0
  4 10  1  0
M  END
$$$$
Conformer_8_Energy_518.33
     RDKit          3D

 10 11  0  0  0  0  0  0  0  0999 V2000
    1.2060   -0.2274   -0.3840 C   0  0  0  0  0  0  0  0  0  0  0  0
    0.0507   -0.5522    0.5358 C   0  0  0  0  0  0  0  0  0  0  0  0
   -0.0354    0.6340   -0.4378 C   0  0  0  0  0  0  0  0  0  0  0  0
   -1.2760   -0.1458   -0.0650 C   0  0  0  0  0  0  0  0  0  0  0  0
    2.0802    0.2439    0.1137 H   0  0  0  0  0  0  0  0  0  0  0  0
    1.3062   -0.9244   -1.2418 H   0  0  0  0  0  0  0  0  0  0  0  0
    0.1960   -0.1526    1.5640 H   0  0  0  0  0  0  0  0  0  0  0  0
    0.0705    1.5755    0.1455 H   0  0  0  0  0  0  0  0  0  0  0  0
   -1.6345   -0.8279   -0.8637 H   0  0  0  0  0  0  0  0  0  0  0  0
   -1.9638    0.3770    0.6333 H   0  0  0  0  0  0  0  0  0  0  0  0
  1  2  1  0
  2  3  1  0
  3  4  1  0
  3  1  1  0
  4  2  1  0
  1  5  1  0
  1  6  1  0
  2  7  1  0
  3  8  1  0
  4  9  1  0
  4 10  1  0
M  END
$$$$
Conformer_3_Energy_518.33
     RDKit          3D

 10 11  0  0  0  0  0  0  0  0999 V2000
   -1.2329   -0.2727   -0.2432 C   0  0  0  0  0  0  0  0  0  0  0  0
    0.0045   -0.4855    0.5991 C   0  0  0  0  0  0  0  0  0  0  0  0
   -0.0118    0.5781   -0.5102 C   0  0  0  0  0  0  0  0  0  0  0  0
    1.2666   -0.1508   -0.1634 C   0  0  0  0  0  0  0  0  0  0  0  0
   -1.4020   -1.0658   -1.0009 H   0  0  0  0  0  0  0  0  0  0  0  0
   -2.0643    0.2529    0.2732 H   0  0  0  0  0  0  0  0  0  0  0  0
   -0.0522    0.0320    1.5825 H   0  0  0  0  0  0  0  0  0  0  0  0
   -0.0758    1.5815   -0.0338 H   0  0  0  0  0  0  0  0  0  0  0  0
    1.5597   -0.9211   -0.9067 H   0  0  0  0  0  0  0  0  0  0  0  0
    2.0083    0.4515    0.4034 H   0  0  0  0  0  0  0  0  0  0  0  0
  1  2  1  0
  2  3  1  0
  3  4  1  0
  3  1  1  0
  4  2  1  0
  1  5  1  0
  1  6  1  0
  2  7  1  0
  3  8  1  0
  4  9  1  0
  4 10  1  0
M  END
$$$$
Conformer_1_Energy_518.33
     RDKit          3D

 10 11  0  0  0  0  0  0  0  0999 V2000
   -1.2678   -0.0414   -0.2110 C   0  0  0  0  0  0  0  0  0  0  0  0
   -0.0279   -0.6658    0.3880 C   0  0  0  0  0  0  0  0  0  0  0  0
    0.0367    0.7205   -0.2725 C   0  0  0  0  0  0  0  0  0  0  0  0
    1.2280   -0.2093   -0.3193 C   0  0  0  0  0  0  0  0  0  0  0  0
   -1.5724   -0.4889   -1.1799 H   0  0  0  0  0  0  0  0  0  0  0  0
   -1.9997    0.3457    0.5297 H   0  0  0  0  0  0  0  0  0  0  0  0
    0.0290   -0.5323    1.4911 H   0  0  0  0  0  0  0  0  0  0  0  0
    0.1229    1.4877    0.5287 H   0  0  0  0  0  0  0  0  0  0  0  0
    1.3850   -0.6877   -1.3083 H   0  0  0  0  0  0  0  0  0  0  0  0
    2.0664    0.0715    0.3533 H   0  0  0  0  0  0  0  0  0  0  0  0
  1  2  1  0
  2  3  1  0
  3  4  1  0
  3  1  1  0
  4  2  1  0
  1  5  1  0
  1  6  1  0
  2  7  1  0
  3  8  1  0
  4  9  1  0
  4 10  1  0
M  END
$$$$
Conformer_4_Energy_518.33
     RDKit          3D

 10 11  0  0  0  0  0  0  0  0999 V2000
    1.2183   -0.0416    0.4094 C   0  0  0  0  0  0  0  0  0  0  0  0
   -0.0266    0.7625    0.1100 C   0  0  0  0  0  0  0  0  0  0  0  0
    0.0384   -0.7338   -0.2348 C   0  0  0  0  0  0  0  0  0  0  0  0
   -1.2725   -0.0925    0.1606 C   0  0  0  0  0  0  0  0  0  0  0  0
    1.3484   -0.2830    1.4848 H   0  0  0  0  0  0  0  0  0  0  0  0
    2.0743    0.1530   -0.2715 H   0  0  0  0  0  0  0  0  0  0  0  0
    0.0560    1.3445   -0.8347 H   0  0  0  0  0  0  0  0  0  0  0  0
    0.1506   -0.8357   -1.3370 H   0  0  0  0  0  0  0  0  0  0  0  0
   -1.9841    0.0703   -0.6768 H   0  0  0  0  0  0  0  0  0  0  0  0
   -1.6028   -0.3438    1.1899 H   0  0  0  0  0  0  0  0  0  0  0  0
  1  2  1  0
  2  3  1  0
  3  4  1  0
  3  1  1  0
  4  2  1  0
  1  5  1  0
  1  6  1  0
  2  7  1  0
  3  8  1  0
  4  9  1  0
  4 10  1  0
M  END
$$$$
Conformer_2_Energy_527.56
     RDKit          3D

 10 11  0  0  0  0  0  0  0  0999 V2000
    1.1851   -0.3058   -0.3386 C   0  0  0  0  0  0  0  0  0  0  0  0
   -0.0940    0.3913   -0.6946 C   0  0  0  0  0  0  0  0  0  0  0  0
    0.1724   -0.1024    0.7651 C   0  0  0  0  0  0  0  0  0  0  0  0
   -1.2244    0.1990    0.2719 C   0  0  0  0  0  0  0  0  0  0  0  0
    2.0718    0.3599   -0.2729 H   0  0  0  0  0  0  0  0  0  0  0  0
    1.2477   -1.3324   -0.7616 H   0  0  0  0  0  0  0  0  0  0  0  0
    0.1111    1.4800   -0.7853 H   0  0  0  0  0  0  0  0  0  0  0  0
    0.0430   -1.1486    1.1195 H   0  0  0  0  0  0  0  0  0  0  0  0
   -1.6563    1.1410    0.6717 H   0  0  0  0  0  0  0  0  0  0  0  0
   -1.8564   -0.6820    0.0249 H   0  0  0  0  0  0  0  0  0  0  0  0
  1  2  1  0
  2  3  1  0
  3  4  1  0
  3  1  1  0
  4  2  1  0
  1  5  1  0
  1  6  1  0
  2  7  1  0
  3  8  1  0
  4  9  1  0
  4 10  1  0
M  END
$$$$
