    10
 geometry
 C                    -0.04623384    -0.05299063     1.18127241
 C                    -0.90324930     0.05214700     0.00000000
 C                     1.06425450     0.24108244     0.00000000
 C                    -0.04623384    -0.05299063    -1.18127241
 H                    -0.29566591     0.64742065     1.96971268
 H                     0.25877674    -1.01123118     1.59117847
 H                    -1.47474107     0.97995570     0.00000000
 H                     1.61387406    -0.71970977     0.00000000
 H                    -0.29566591     0.64742065    -1.96971268
 H                     0.25877674    -1.01123118    -1.59117847
