    10
 geometry
 C                    -0.03563819    -0.05015201     1.18675492
 C                    -0.91004805     0.03230310     0.00000000
 C                     1.04428840     0.22890232     0.00000000
 C                    -0.03563819    -0.05015201    -1.18675492
 H                    -0.27983422     0.66320548     1.95548422
 H                     0.25271591    -1.00131744     1.61005074
 H                    -1.49025742     0.96374481     0.00000000
 H                     1.61542227    -0.72854922     0.00000000
 H                    -0.27983422     0.66320548    -1.95548422
 H                     0.25271591    -1.00131744    -1.61005074
