    10
 geometry
 C                     0.01616587    -0.02600442     1.10565039
 C                    -1.02869982    -0.06123650     0.00000000
 C                     1.06794228     0.00361566     0.00000000
 C                     0.01616587    -0.02600442    -1.10565039
 H                    -0.14984876     0.84742696     1.74028060
 H                     0.17671211    -0.88976479     1.75340289
 H                    -1.76109427     0.75149109     0.00000000
 H                     1.76968555    -0.83731267     0.00000000
 H                    -0.14984876     0.84742696    -1.74028060
 H                     0.17671211    -0.88976479    -1.75340289
