    10
 geometry
 C                     0.01713433    -0.02400271     1.14862370
 C                    -1.00403415    -0.10801991     0.00000000
 C                     1.03477576     0.04074582     0.00000000
 C                     0.01713433    -0.02400271    -1.14862370
 H                    -0.23419806     0.82406415     1.78306213
 H                     0.23745134    -0.88651356     1.77667180
 H                    -1.60274531     0.81388320     0.00000000
 H                     1.66512066    -0.85383181     0.00000000
 H                    -0.23419806     0.82406415    -1.78306213
 H                     0.23745134    -0.88651356    -1.77667180
