    10
 geometry
 C                     0.01340957    -0.02799738     1.10543215
 C                    -1.03690995    -0.05921988     0.00000000
 C                     1.06374862     0.00330684     0.00000000
 C                     0.01340957    -0.02799738    -1.10543215
 H                    -0.14900284     0.84015089     1.74638506
 H                     0.17573759    -0.89626621     1.74625359
 H                    -1.75596833     0.76659770     0.00000000
 H                     1.78273321    -0.82258619     0.00000000
 H                    -0.14900284     0.84015089    -1.74638506
 H                     0.17573759    -0.89626621    -1.74625359
