    10
 geometry
 C                     0.01477509    -0.02726200     1.10588511
 C                    -1.03617874    -0.06457128     0.00000000
 C                     1.06460699     0.00100014     0.00000000
 C                     0.01477509    -0.02726200    -1.10588511
 H                    -0.14787212     0.84689683     1.73822064
 H                     0.17902625    -0.88953943     1.75363181
 H                    -1.76040014     0.75722355     0.00000000
 H                     1.77400563    -0.83397016     0.00000000
 H                    -0.14787212     0.84689683    -1.73822064
 H                     0.17902625    -0.88953943    -1.75363181
