    10
 geometry
 C                     0.01295583    -0.02780082     1.10540923
 C                    -1.03721031    -0.06021685     0.00000000
 C                     1.06405502     0.00319066     0.00000000
 C                     0.01295583    -0.02780082    -1.10540923
 H                    -0.14786406     0.84130688     1.74552426
 H                     0.17553464    -0.89616621     1.74607889
 H                    -1.75664496     0.76528909     0.00000000
 H                     1.78243960    -0.82306952     0.00000000
 H                    -0.14786406     0.84130688    -1.74552426
 H                     0.17553464    -0.89616621    -1.74607889
