    10
 geometry
 C                    -0.01926524    -0.03751318     1.18054286
 C                    -0.93382182    -0.00582730     0.00000000
 C                     1.03132943     0.17968153     0.00000000
 C                    -0.01926524    -0.03751318    -1.18054286
 H                    -0.26757910     0.70634764     1.91953792
 H                     0.26097800    -0.97033568     1.64812977
 H                    -1.52411473     0.92210419     0.00000000
 H                     1.61223199    -0.77308293     0.00000000
 H                    -0.26757910     0.70634764    -1.91953792
 H                     0.26097800    -0.97033568    -1.64812977
