    10
 geometry
 C                     0.02151995    -0.01927260     1.14450788
 C                    -1.00974331    -0.10864357     0.00000000
 C                     1.02358973     0.04833137     0.00000000
 C                     0.02151995    -0.01927260    -1.14450788
 H                    -0.23379927     0.82235630     1.78694150
 H                     0.25427456    -0.88856816     1.75741669
 H                    -1.60446385     0.81488142     0.00000000
 H                     1.64051911    -0.86372723     0.00000000
 H                    -0.23379927     0.82235630    -1.78694150
 H                     0.25427456    -0.88856816    -1.75741669
