    10
 geometry
 C                    -0.03139637    -0.08386252     1.20486286
 C                    -0.85536217     0.02640830     0.00000000
 C                     1.00779747     0.31129223     0.00000000
 C                    -0.03139637    -0.08386252    -1.20486286
 H                    -0.26271318     0.66919618     1.96074386
 H                     0.15012129    -1.09079186     1.59484158
 H                    -1.39857166     0.97405383     0.00000000
 H                     1.66800507    -0.58096489     0.00000000
 H                    -0.26271318     0.66919618    -1.96074386
 H                     0.15012129    -1.09079186    -1.59484158
