    10
 geometry
 C                     0.00656314    -0.02331155     1.15816696
 C                    -0.98122224    -0.06640571     0.00000000
 C                     1.02064563     0.10252219     0.00000000
 C                     0.00656314    -0.02331155    -1.15816696
 H                    -0.24647357     0.77563001     1.84519027
 H                     0.26679663    -0.92349316     1.70534959
 H                    -1.57544484     0.85830662     0.00000000
 H                     1.61614125    -0.83220064     0.00000000
 H                    -0.24647357     0.77563001    -1.84519027
 H                     0.26679663    -0.92349316    -1.70534959
