    10
 geometry
 C                     0.00801899    -0.09375258     1.26819000
 C                    -0.78937266    -0.02516595     0.00000000
 C                     0.74655624     0.26869649     0.00000000
 C                     0.00801899    -0.09375258    -1.26819000
 H                    -0.15276903     0.75842425     1.96221278
 H                     0.14604491    -1.13488772     1.63378695
 H                    -1.37115633     0.92198132     0.00000000
 H                     1.54527521    -0.50520671     0.00000000
 H                    -0.15276903     0.75842425    -1.96221278
 H                     0.14604491    -1.13488772    -1.63378695
