     5
 geometry
 Cl                   -0.43385850     1.61918197    -0.09065928
 C                    -0.00000000    -0.00000000     0.50202745
 Cl                    1.61918197    -0.43385850    -0.09065928
 Cl                   -1.18532347    -1.18532347    -0.09065928
 H                    -0.00000000    -0.00000000     1.61145832
