     5
 geometry
 Cl                   -0.45528175     1.69913463    -0.07167642
 C                     0.00000000     0.00000000     0.48983563
 Cl                    1.69913463    -0.45528175    -0.07167642
 Cl                   -1.24385288    -1.24385288    -0.07167642
 H                     0.00000000     0.00000000     1.56670157
