     9
 geometry
 C                    -1.14911752    -1.26282411     0.00331157
 C                     0.13385893    -0.50101336     0.00545324
 C                     1.37712819    -0.95817351    -0.00690599
 Cl                   -0.12843779     1.33848510     0.02661514
 H                    -0.94446622    -2.33414720    -0.01012205
 H                    -1.74451929    -1.03492285     0.88908074
 H                    -1.75356483    -1.01450957    -0.87075714
 H                     2.23826216    -0.30843030    -0.00412265
 H                     1.55498921    -2.02612953    -0.01977107
