     9
 geometry
 C                    -1.14884329    -1.26303400     0.00180710
 C                     0.13371189    -0.49928376    -0.00196255
 C                     1.37684070    -0.95761180     0.00053923
 Cl                   -0.13036531     1.33882403     0.00098413
 H                    -0.94324307    -2.33394716    -0.04148109
 H                    -1.72647557    -1.05628953     0.90481354
 H                    -1.77040451    -0.99356252    -0.85364654
 H                     2.24004833    -0.31052520     0.00226682
 H                     1.55286366    -2.02623538    -0.00053884
