     9
 geometry
 C                    -1.14923308    -1.26258973     0.00219068
 C                     0.13384735    -0.50198483    -0.00023422
 C                     1.37727657    -0.95878991    -0.00086752
 Cl                   -0.12701406     1.33862839     0.00506995
 H                    -0.94593283    -2.33341558    -0.03583835
 H                    -1.73044064    -1.05284043     0.90191896
 H                    -1.76784562    -0.99737164    -0.85652643
 H                     2.23680147    -0.30686275     0.00151284
 H                     1.55667367    -2.02643884    -0.00444411
