     9
 geometry
 C                    -1.14922194    -1.26291307     0.00197116
 C                     0.13383485    -0.50149071    -0.00121882
 C                     1.37728966    -0.95825213    -0.00001139
 Cl                   -0.12805217     1.33869953     0.00251395
 H                    -0.94559776    -2.33351506    -0.03922892
 H                    -1.72827373    -1.05498821     0.90358973
 H                    -1.76956676    -0.99505784    -0.85469987
 H                     2.23800060    -0.30798691     0.00203001
 H                     1.55572009    -2.02616092    -0.00216405
