     9
 geometry
 C                    -1.12633721    -1.27111544     0.00112726
 C                     0.10726533    -0.41684896    -0.00565254
 C                     1.33187698    -0.95416972     0.00093779
 Cl                   -0.07175990     1.33202100     0.00032223
 H                    -0.88126434    -2.35386058    -0.04718340
 H                    -1.70193834    -1.07751391     0.93006718
 H                    -1.75750679    -1.01224026    -0.87430439
 H                     2.21073655    -0.31726145     0.00256024
 H                     1.47306054    -2.03067601     0.00490742
